<?xml version="1.0" encoding="UTF-8"?>
<routes>
    <!-- Vehicle Types -->
    <vType id="car" accel="2.6" decel="4.5" sigma="0.5" length="5.0" minGap="2.5" maxSpeed="13.9" color="0,0,255"/>
    <vType id="bus" accel="2.0" decel="4.0" sigma="0.5" length="12.0" minGap="3.0" maxSpeed="11.1" color="255,0,0"/>
    
    <!-- Routes -->
    <route id="route_0" edges="edge_north_to_center edge_center_to_east"/>
    <route id="route_1" edges="edge_east_to_center edge_center_to_south"/>
    <route id="route_2" edges="edge_south_to_center edge_center_to_west"/>
    <route id="route_3" edges="edge_west_to_center edge_center_to_north"/>
    
    <!-- Vehicle Flows -->
    <flow id="flow_0" type="car" route="route_0" begin="0" end="2000" vehsPerHour="300"/>
    <flow id="flow_1" type="car" route="route_1" begin="0" end="2000" vehsPerHour="300"/>
    <flow id="flow_2" type="bus" route="route_2" begin="0" end="2000" vehsPerHour="100"/>
    <flow id="flow_3" type="car" route="route_3" begin="0" end="2000" vehsPerHour="300"/>
</routes> 