<?xml version="1.0" encoding="UTF-8"?>

<!-- generated on 2025-05-04 13:58:46 by Eclipse SUMO netconvert Version 1.22.0
<netconvertConfiguration xmlns:xsi="http://www.w3.org/2001/XMLSchema-instance" xsi:noNamespaceSchemaLocation="http://sumo.dlr.de/xsd/netconvertConfiguration.xsd">

    <input>
        <node-files value="simple.nod.xml"/>
        <edge-files value="simple.edg.xml"/>
        <type-files value="simple.typ.xml"/>
    </input>

    <output>
        <output-file value="simple.net.xml"/>
    </output>

</netconvertConfiguration>
-->

<net version="1.20" junctionCornerDetail="5" limitTurnSpeed="5.50" xmlns:xsi="http://www.w3.org/2001/XMLSchema-instance" xsi:noNamespaceSchemaLocation="http://sumo.dlr.de/xsd/net_file.xsd">

    <location netOffset="0.00,0.00" convBoundary="0.00,0.00,200.00,0.00" origBoundary="0.00,0.00,200.00,0.00" projParameter="!"/>

    <type id="car" numLanes="1" speed="13.90"/>

    <edge id=":n1_0" function="internal">
        <lane id=":n1_0_0" index="0" speed="13.90" length="0.10" shape="100.00,-1.60 100.00,-1.60"/>
    </edge>

    <edge id="edge0" from="n0" to="n1" priority="-1" type="car">
        <lane id="edge0_0" index="0" speed="13.90" length="100.00" shape="0.00,-1.60 100.00,-1.60"/>
    </edge>
    <edge id="edge1" from="n1" to="n2" priority="-1" type="car">
        <lane id="edge1_0" index="0" speed="13.90" length="100.00" shape="100.00,-1.60 200.00,-1.60"/>
    </edge>

    <tlLogic id="n1" type="static" programID="0" offset="0">
        <phase duration="82" state="G"/>
        <phase duration="3"  state="y"/>
        <phase duration="5"  state="r"/>
    </tlLogic>

    <junction id="n0" type="dead_end" x="0.00" y="0.00" incLanes="" intLanes="" shape="0.00,0.00 0.00,-3.20"/>
    <junction id="n1" type="traffic_light" x="100.00" y="0.00" incLanes="edge0_0" intLanes=":n1_0_0" shape="100.00,0.00 100.00,-3.20 100.00,0.00">
        <request index="0" response="0" foes="0" cont="0"/>
    </junction>
    <junction id="n2" type="dead_end" x="200.00" y="0.00" incLanes="edge1_0" intLanes="" shape="200.00,-3.20 200.00,0.00"/>

    <connection from="edge0" to="edge1" fromLane="0" toLane="0" via=":n1_0_0" tl="n1" linkIndex="0" dir="s" state="O"/>

    <connection from=":n1_0" to="edge1" fromLane="0" toLane="0" dir="s" state="M"/>

</net>
