<types>
    <type id="car" numLanes="1" speed="10.9"/>
</types>
