<?xml version="1.0" encoding="UTF-8"?>
<edges>
    <!-- Inbound edges (approach → center) -->
    <edge id="edge_north_to_center" from="north" to="center" priority="1" numLanes="2" speed="13.9" width="4.0"/>
    <edge id="edge_south_to_center" from="south" to="center" priority="1" numLanes="2" speed="13.9" width="4.0"/>
    <edge id="edge_east_to_center"  from="east"  to="center" priority="1" numLanes="2" speed="13.9" width="4.0"/>
    <edge id="edge_west_to_center"  from="west"  to="center" priority="1" numLanes="2" speed="13.9" width="4.0"/>

    <!-- Outbound edges (center → approach) -->
    <edge id="edge_center_to_north" from="center" to="north"  priority="1" numLanes="2" speed="13.9" width="4.0"/>
    <edge id="edge_center_to_south" from="center" to="south"  priority="1" numLanes="2" speed="13.9" width="4.0"/>
    <edge id="edge_center_to_east"  from="center" to="east"   priority="1" numLanes="2" speed="13.9" width="4.0"/>
    <edge id="edge_center_to_west"  from="center" to="west"   priority="1" numLanes="2" speed="13.9" width="4.0"/>
</edges>
