<?xml version="1.0" encoding="UTF-8"?> 

<net version="1.20" junctionCornerDetail="5" lefthand="true" limitTurnSpeed="5.50" xmlns:xsi="http://www.w3.org/2001/XMLSchema-instance" xsi:noNamespaceSchemaLocation="http://sumo.dlr.de/xsd/net_file.xsd">

    <location netOffset="500.00,500.00" convBoundary="0.00,-0.00,1000.00,1000.00" origBoundary="-500.00,-500.00,500.00,550.00" projParameter="!"/>

    <edge id=":center_0" function="internal">
        <lane id=":center_0_0" index="0" speed="6.79" length="9.68" width="4.00" shape="494.00,488.00 493.62,490.62 492.50,492.50 490.62,493.62 488.00,494.00"/>
    </edge>
    <edge id=":center_1" function="internal">
        <lane id=":center_1_0" index="0" speed="13.90" length="24.00" width="4.00" shape="494.00,488.00 494.00,512.00"/>
        <lane id=":center_1_1" index="1" speed="13.90" length="24.00" width="4.00" shape="498.00,488.00 498.00,512.00"/>
    </edge>
    <edge id=":center_3" function="internal">
        <lane id=":center_3_0" index="0" speed="10.02" length="6.51" width="4.00" shape="498.00,488.00 498.88,494.12 499.04,494.40"/>
    </edge>
    <edge id=":center_4" function="internal">
        <lane id=":center_4_0" index="0" speed="4.08" length="1.99" width="4.00" shape="498.00,488.00 499.00,489.50 499.17,489.58"/>
    </edge>
    <edge id=":center_20" function="internal">
        <lane id=":center_20_0" index="0" speed="10.02" length="16.07" width="4.00" shape="499.04,494.40 501.50,498.50 505.88,501.12 512.00,502.00"/>
    </edge>
    <edge id=":center_21" function="internal">
        <lane id=":center_21_0" index="0" speed="4.08" length="3.85" width="4.00" shape="499.17,489.58 500.00,490.00 501.00,489.50 502.00,488.00"/>
    </edge>
    <edge id=":center_5" function="internal">
        <lane id=":center_5_0" index="0" speed="6.79" length="9.68" width="4.00" shape="512.00,494.00 509.38,493.62 507.50,492.50 506.38,490.62 506.00,488.00"/>
    </edge>
    <edge id=":center_6" function="internal">
        <lane id=":center_6_0" index="0" speed="13.90" length="24.00" width="4.00" shape="512.00,494.00 488.00,494.00"/>
        <lane id=":center_6_1" index="1" speed="13.90" length="24.00" width="4.00" shape="512.00,498.00 488.00,498.00"/>
    </edge>
    <edge id=":center_8" function="internal">
        <lane id=":center_8_0" index="0" speed="10.02" length="6.51" width="4.00" shape="512.00,498.00 505.88,498.88 505.60,499.04"/>
    </edge>
    <edge id=":center_9" function="internal">
        <lane id=":center_9_0" index="0" speed="4.08" length="1.99" width="4.00" shape="512.00,498.00 510.50,499.00 510.42,499.17"/>
    </edge>
    <edge id=":center_22" function="internal">
        <lane id=":center_22_0" index="0" speed="10.02" length="16.07" width="4.00" shape="505.60,499.04 501.50,501.50 498.88,505.88 498.00,512.00"/>
    </edge>
    <edge id=":center_23" function="internal">
        <lane id=":center_23_0" index="0" speed="4.08" length="3.85" width="4.00" shape="510.42,499.17 510.00,500.00 510.50,501.00 512.00,502.00"/>
    </edge>
    <edge id=":center_10" function="internal">
        <lane id=":center_10_0" index="0" speed="6.79" length="9.68" width="4.00" shape="506.00,512.00 506.38,509.38 507.50,507.50 509.38,506.38 512.00,506.00"/>
    </edge>
    <edge id=":center_11" function="internal">
        <lane id=":center_11_0" index="0" speed="13.90" length="24.00" width="4.00" shape="506.00,512.00 506.00,488.00"/>
        <lane id=":center_11_1" index="1" speed="13.90" length="24.00" width="4.00" shape="502.00,512.00 502.00,488.00"/>
    </edge>
    <edge id=":center_13" function="internal">
        <lane id=":center_13_0" index="0" speed="10.02" length="6.51" width="4.00" shape="502.00,512.00 501.12,505.88 500.96,505.60"/>
    </edge>
    <edge id=":center_14" function="internal">
        <lane id=":center_14_0" index="0" speed="4.08" length="1.99" width="4.00" shape="502.00,512.00 501.00,510.50 500.83,510.42"/>
    </edge>
    <edge id=":center_24" function="internal">
        <lane id=":center_24_0" index="0" speed="10.02" length="16.07" width="4.00" shape="500.96,505.60 498.50,501.50 494.12,498.88 488.00,498.00"/>
    </edge>
    <edge id=":center_25" function="internal">
        <lane id=":center_25_0" index="0" speed="4.08" length="3.85" width="4.00" shape="500.83,510.42 500.00,510.00 499.00,510.50 498.00,512.00"/>
    </edge>
    <edge id=":center_15" function="internal">
        <lane id=":center_15_0" index="0" speed="6.79" length="9.68" width="4.00" shape="488.00,506.00 490.62,506.38 492.50,507.50 493.62,509.38 494.00,512.00"/>
    </edge>
    <edge id=":center_16" function="internal">
        <lane id=":center_16_0" index="0" speed="13.90" length="24.00" width="4.00" shape="488.00,506.00 512.00,506.00"/>
        <lane id=":center_16_1" index="1" speed="13.90" length="24.00" width="4.00" shape="488.00,502.00 512.00,502.00"/>
    </edge>
    <edge id=":center_18" function="internal">
        <lane id=":center_18_0" index="0" speed="10.02" length="6.51" width="4.00" shape="488.00,502.00 494.12,501.12 494.40,500.96"/>
    </edge>
    <edge id=":center_19" function="internal">
        <lane id=":center_19_0" index="0" speed="4.08" length="1.99" width="4.00" shape="488.00,502.00 489.50,501.00 489.58,500.83"/>
    </edge>
    <edge id=":center_26" function="internal">
        <lane id=":center_26_0" index="0" speed="10.02" length="16.07" width="4.00" shape="494.40,500.96 498.50,498.50 501.12,494.12 502.00,488.00"/>
    </edge>
    <edge id=":center_27" function="internal">
        <lane id=":center_27_0" index="0" speed="4.08" length="3.85" width="4.00" shape="489.58,500.83 490.00,500.00 489.50,499.00 488.00,498.00"/>
    </edge>
    <edge id=":east_0" function="internal">
        <lane id=":east_0_0" index="0" speed="4.08" length="5.84" width="4.00" shape="1000.00,502.00 1001.50,501.00 1002.00,500.00 1001.50,499.00 1000.00,498.00"/>
    </edge>
    <edge id=":north_0" function="internal">
        <lane id=":north_0_0" index="0" speed="4.08" length="5.84" width="4.00" shape="498.00,1000.00 499.00,1001.50 500.00,1002.00 501.00,1001.50 502.00,1000.00"/>
    </edge>
    <edge id=":south_0" function="internal">
        <lane id=":south_0_0" index="0" speed="4.08" length="5.84" width="4.00" shape="502.00,-0.00 501.00,-1.50 500.00,-2.00 499.00,-1.50 498.00,-0.00"/>
    </edge>
    <edge id=":west_0" function="internal">
        <lane id=":west_0_0" index="0" speed="4.08" length="5.84" width="4.00" shape="-0.00,498.00 -1.50,499.00 -2.00,500.00 -1.50,501.00 -0.00,502.00"/>
    </edge>

    <edge id="edge_center_to_east" from="center" to="east" priority="1">
        <lane id="edge_center_to_east_0" index="0" speed="13.90" length="488.00" width="4.00" shape="512.00,506.00 1000.00,506.00"/>
        <lane id="edge_center_to_east_1" index="1" speed="13.90" length="488.00" width="4.00" shape="512.00,502.00 1000.00,502.00"/>
    </edge>
    <edge id="edge_center_to_north" from="center" to="north" priority="1">
        <lane id="edge_center_to_north_0" index="0" speed="13.90" length="488.00" width="4.00" shape="494.00,512.00 494.00,1000.00"/>
        <lane id="edge_center_to_north_1" index="1" speed="13.90" length="488.00" width="4.00" shape="498.00,512.00 498.00,1000.00"/>
    </edge>
    <edge id="edge_center_to_south" from="center" to="south" priority="1">
        <lane id="edge_center_to_south_0" index="0" speed="13.90" length="488.00" width="4.00" shape="506.00,488.00 506.00,-0.00"/>
        <lane id="edge_center_to_south_1" index="1" speed="13.90" length="488.00" width="4.00" shape="502.00,488.00 502.00,-0.00"/>
    </edge>
    <edge id="edge_center_to_west" from="center" to="west" priority="1">
        <lane id="edge_center_to_west_0" index="0" speed="13.90" length="488.00" width="4.00" shape="488.00,494.00 -0.00,494.00"/>
        <lane id="edge_center_to_west_1" index="1" speed="13.90" length="488.00" width="4.00" shape="488.00,498.00 -0.00,498.00"/>
    </edge>
    <edge id="edge_east_to_center" from="east" to="center" priority="1">
        <lane id="edge_east_to_center_0" index="0" speed="13.90" length="488.00" width="4.00" shape="1000.00,494.00 512.00,494.00"/>
        <lane id="edge_east_to_center_1" index="1" speed="13.90" length="488.00" width="4.00" shape="1000.00,498.00 512.00,498.00"/>
    </edge>
    <edge id="edge_north_to_center" from="north" to="center" priority="1">
        <lane id="edge_north_to_center_0" index="0" speed="13.90" length="488.00" width="4.00" shape="506.00,1000.00 506.00,512.00"/>
        <lane id="edge_north_to_center_1" index="1" speed="13.90" length="488.00" width="4.00" shape="502.00,1000.00 502.00,512.00"/>
    </edge>
    <edge id="edge_south_to_center" from="south" to="center" priority="1">
        <lane id="edge_south_to_center_0" index="0" speed="13.90" length="488.00" width="4.00" shape="494.00,-0.00 494.00,488.00"/>
        <lane id="edge_south_to_center_1" index="1" speed="13.90" length="488.00" width="4.00" shape="498.00,-0.00 498.00,488.00"/>
    </edge>
    <edge id="edge_west_to_center" from="west" to="center" priority="1">
        <lane id="edge_west_to_center_0" index="0" speed="13.90" length="488.00" width="4.00" shape="-0.00,506.00 488.00,506.00"/>
        <lane id="edge_west_to_center_1" index="1" speed="13.90" length="488.00" width="4.00" shape="-0.00,502.00 488.00,502.00"/>
    </edge>

    <tlLogic id="center" type="static" programID="0" offset="0">
        <phase duration="42" state="GGGggrrrrrGGGggrrrrr"/>
        <phase duration="3"  state="yyyyyrrrrryyyyyrrrrr"/>
        <phase duration="42" state="rrrrrGGGggrrrrrGGGgg"/>
        <phase duration="3"  state="rrrrryyyyyrrrrryyyyy"/>
    </tlLogic>

    <junction id="center" type="traffic_light" x="500.00" y="500.00" incLanes="edge_south_to_center_0 edge_south_to_center_1 edge_east_to_center_0 edge_east_to_center_1 edge_north_to_center_0 edge_north_to_center_1 edge_west_to_center_0 edge_west_to_center_1" intLanes=":center_0_0 :center_1_0 :center_1_1 :center_20_0 :center_21_0 :center_5_0 :center_6_0 :center_6_1 :center_22_0 :center_23_0 :center_10_0 :center_11_0 :center_11_1 :center_24_0 :center_25_0 :center_15_0 :center_16_0 :center_16_1 :center_26_0 :center_27_0" shape="492.00,488.00 508.00,488.00 508.44,490.22 509.00,491.00 509.78,491.56 510.78,491.89 512.00,492.00 512.00,508.00 509.78,508.44 509.00,509.00 508.44,509.78 508.11,510.78 508.00,512.00 492.00,512.00 491.56,509.78 491.00,509.00 490.22,508.44 489.22,508.11 488.00,508.00 488.00,492.00 490.22,491.56 491.00,491.00 491.56,490.22 491.89,489.22">
        <request index="0"  response="00000000000000000000" foes="00000000000011000000" cont="0"/>
        <request index="1"  response="01000000000100000000" foes="01111110000111000000" cont="0"/>
        <request index="2"  response="01000000000100000000" foes="01111110000111000000" cont="0"/>
        <request index="3"  response="01000001100100000000" foes="01110001101111000000" cont="1"/>
        <request index="4"  response="01000001100000000000" foes="01000001100000000000" cont="1"/>
        <request index="5"  response="00000001100000000000" foes="00000001100000000000" cont="0"/>
        <request index="6"  response="00000011100000001111" foes="11000011100000001111" cont="0"/>
        <request index="7"  response="00000011100000001111" foes="11000011100000001111" cont="0"/>
        <request index="8"  response="00110011100000001110" foes="00110111100000001110" cont="1"/>
        <request index="9"  response="00110000000000001000" foes="00110000000000001000" cont="1"/>
        <request index="10" response="00000000000000000000" foes="00110000000000000000" cont="0"/>
        <request index="11" response="01000000000100000000" foes="01110000000111111000" cont="0"/>
        <request index="12" response="01000000000100000000" foes="01110000000111111000" cont="0"/>
        <request index="13" response="01000000000100000110" foes="11110000000111000110" cont="1"/>
        <request index="14" response="00000000000100000110" foes="00000000000100000110" cont="1"/>
        <request index="15" response="00000000000000000110" foes="00000000000000000110" cont="0"/>
        <request index="16" response="00000011110000001110" foes="00000011111100001110" cont="0"/>
        <request index="17" response="00000011110000001110" foes="00000011111100001110" cont="0"/>
        <request index="18" response="00000011100011001110" foes="00000011100011011110" cont="1"/>
        <request index="19" response="00000010000011000000" foes="00000010000011000000" cont="1"/>
    </junction>
    <junction id="east" type="priority" x="1000.00" y="500.00" incLanes="edge_center_to_east_0 edge_center_to_east_1" intLanes=":east_0_0" shape="1000.00,500.00 1000.00,508.00 1000.00,500.00">
        <request index="0" response="0" foes="0" cont="0"/>
    </junction>
    <junction id="north" type="priority" x="500.00" y="1000.00" incLanes="edge_center_to_north_0 edge_center_to_north_1" intLanes=":north_0_0" shape="500.00,1000.00 492.00,1000.00 500.00,1000.00">
        <request index="0" response="0" foes="0" cont="0"/>
    </junction>
    <junction id="south" type="priority" x="500.00" y="-0.00" incLanes="edge_center_to_south_0 edge_center_to_south_1" intLanes=":south_0_0" shape="500.00,-0.00 508.00,-0.00 500.00,-0.00">
        <request index="0" response="0" foes="0" cont="0"/>
    </junction>
    <junction id="west" type="priority" x="0.00" y="500.00" incLanes="edge_center_to_west_0 edge_center_to_west_1" intLanes=":west_0_0" shape="-0.00,500.00 -0.00,492.00 -0.00,500.00">
        <request index="0" response="0" foes="0" cont="0"/>
    </junction>

    <junction id=":center_20_0" type="internal" x="499.04" y="494.40" incLanes=":center_3_0 edge_north_to_center_0 edge_north_to_center_1" intLanes=":center_6_0 :center_6_1 :center_8_0 :center_9_0 :center_10_0 :center_11_0 :center_11_1 :center_16_0 :center_16_1 :center_18_0"/>
    <junction id=":center_21_0" type="internal" x="499.17" y="489.58" incLanes=":center_4_0 edge_east_to_center_0 edge_north_to_center_0 edge_north_to_center_1 edge_west_to_center_1" intLanes=":center_5_0 :center_11_0 :center_11_1 :center_18_0"/>
    <junction id=":center_22_0" type="internal" x="505.60" y="499.04" incLanes=":center_8_0 edge_west_to_center_0 edge_west_to_center_1" intLanes=":center_1_0 :center_1_1 :center_3_0 :center_11_0 :center_11_1 :center_13_0 :center_14_0 :center_15_0 :center_16_0 :center_16_1"/>
    <junction id=":center_23_0" type="internal" x="510.42" y="499.17" incLanes=":center_9_0 edge_north_to_center_0 edge_south_to_center_1 edge_west_to_center_0 edge_west_to_center_1" intLanes=":center_3_0 :center_10_0 :center_16_0 :center_16_1"/>
    <junction id=":center_24_0" type="internal" x="500.96" y="505.60" incLanes=":center_13_0 edge_south_to_center_0 edge_south_to_center_1" intLanes=":center_0_0 :center_1_0 :center_1_1 :center_6_0 :center_6_1 :center_8_0 :center_16_0 :center_16_1 :center_18_0 :center_19_0"/>
    <junction id=":center_25_0" type="internal" x="500.83" y="510.42" incLanes=":center_14_0 edge_east_to_center_1 edge_south_to_center_0 edge_south_to_center_1 edge_west_to_center_0" intLanes=":center_1_0 :center_1_1 :center_8_0 :center_15_0"/>
    <junction id=":center_26_0" type="internal" x="494.40" y="500.96" incLanes=":center_18_0 edge_east_to_center_0 edge_east_to_center_1" intLanes=":center_1_0 :center_1_1 :center_3_0 :center_4_0 :center_5_0 :center_6_0 :center_6_1 :center_11_0 :center_11_1 :center_13_0"/>
    <junction id=":center_27_0" type="internal" x="489.58" y="500.83" incLanes=":center_19_0 edge_east_to_center_0 edge_east_to_center_1 edge_north_to_center_1 edge_south_to_center_0" intLanes=":center_0_0 :center_6_0 :center_6_1 :center_13_0"/>

    <connection from="edge_center_to_east" to="edge_east_to_center" fromLane="1" toLane="1" via=":east_0_0" dir="T" state="M"/>
    <connection from="edge_center_to_north" to="edge_north_to_center" fromLane="1" toLane="1" via=":north_0_0" dir="T" state="M"/>
    <connection from="edge_center_to_south" to="edge_south_to_center" fromLane="1" toLane="1" via=":south_0_0" dir="T" state="M"/>
    <connection from="edge_center_to_west" to="edge_west_to_center" fromLane="1" toLane="1" via=":west_0_0" dir="T" state="M"/>
    <connection from="edge_east_to_center" to="edge_center_to_south" fromLane="0" toLane="0" via=":center_5_0" tl="center" linkIndex="5" dir="l" state="o"/>
    <connection from="edge_east_to_center" to="edge_center_to_west" fromLane="0" toLane="0" via=":center_6_0" tl="center" linkIndex="6" dir="s" state="o"/>
    <connection from="edge_east_to_center" to="edge_center_to_west" fromLane="1" toLane="1" via=":center_6_1" tl="center" linkIndex="7" dir="s" state="o"/>
    <connection from="edge_east_to_center" to="edge_center_to_north" fromLane="1" toLane="1" via=":center_8_0" tl="center" linkIndex="8" dir="r" state="o"/>
    <connection from="edge_east_to_center" to="edge_center_to_east" fromLane="1" toLane="1" via=":center_9_0" tl="center" linkIndex="9" dir="T" state="o"/>
    <connection from="edge_north_to_center" to="edge_center_to_east" fromLane="0" toLane="0" via=":center_10_0" tl="center" linkIndex="10" dir="l" state="O"/>
    <connection from="edge_north_to_center" to="edge_center_to_south" fromLane="0" toLane="0" via=":center_11_0" tl="center" linkIndex="11" dir="s" state="O"/>
    <connection from="edge_north_to_center" to="edge_center_to_south" fromLane="1" toLane="1" via=":center_11_1" tl="center" linkIndex="12" dir="s" state="O"/>
    <connection from="edge_north_to_center" to="edge_center_to_west" fromLane="1" toLane="1" via=":center_13_0" tl="center" linkIndex="13" dir="r" state="o"/>
    <connection from="edge_north_to_center" to="edge_center_to_north" fromLane="1" toLane="1" via=":center_14_0" tl="center" linkIndex="14" dir="T" state="o"/>
    <connection from="edge_south_to_center" to="edge_center_to_west" fromLane="0" toLane="0" via=":center_0_0" tl="center" linkIndex="0" dir="l" state="O"/>
    <connection from="edge_south_to_center" to="edge_center_to_north" fromLane="0" toLane="0" via=":center_1_0" tl="center" linkIndex="1" dir="s" state="O"/>
    <connection from="edge_south_to_center" to="edge_center_to_north" fromLane="1" toLane="1" via=":center_1_1" tl="center" linkIndex="2" dir="s" state="O"/>
    <connection from="edge_south_to_center" to="edge_center_to_east" fromLane="1" toLane="1" via=":center_3_0" tl="center" linkIndex="3" dir="r" state="o"/>
    <connection from="edge_south_to_center" to="edge_center_to_south" fromLane="1" toLane="1" via=":center_4_0" tl="center" linkIndex="4" dir="T" state="o"/>
    <connection from="edge_west_to_center" to="edge_center_to_north" fromLane="0" toLane="0" via=":center_15_0" tl="center" linkIndex="15" dir="l" state="o"/>
    <connection from="edge_west_to_center" to="edge_center_to_east" fromLane="0" toLane="0" via=":center_16_0" tl="center" linkIndex="16" dir="s" state="o"/>
    <connection from="edge_west_to_center" to="edge_center_to_east" fromLane="1" toLane="1" via=":center_16_1" tl="center" linkIndex="17" dir="s" state="o"/>
    <connection from="edge_west_to_center" to="edge_center_to_south" fromLane="1" toLane="1" via=":center_18_0" tl="center" linkIndex="18" dir="r" state="o"/>
    <connection from="edge_west_to_center" to="edge_center_to_west" fromLane="1" toLane="1" via=":center_19_0" tl="center" linkIndex="19" dir="T" state="o"/>

    <connection from=":center_0" to="edge_center_to_west" fromLane="0" toLane="0" dir="l" state="M"/>
    <connection from=":center_1" to="edge_center_to_north" fromLane="0" toLane="0" dir="s" state="M"/>
    <connection from=":center_1" to="edge_center_to_north" fromLane="1" toLane="1" dir="s" state="M"/>
    <connection from=":center_3" to="edge_center_to_east" fromLane="0" toLane="1" via=":center_20_0" dir="r" state="m"/>
    <connection from=":center_20" to="edge_center_to_east" fromLane="0" toLane="1" dir="r" state="M"/>
    <connection from=":center_4" to="edge_center_to_south" fromLane="0" toLane="1" via=":center_21_0" dir="T" state="m"/>
    <connection from=":center_21" to="edge_center_to_south" fromLane="0" toLane="1" dir="T" state="M"/>
    <connection from=":center_5" to="edge_center_to_south" fromLane="0" toLane="0" dir="l" state="M"/>
    <connection from=":center_6" to="edge_center_to_west" fromLane="0" toLane="0" dir="s" state="M"/>
    <connection from=":center_6" to="edge_center_to_west" fromLane="1" toLane="1" dir="s" state="M"/>
    <connection from=":center_8" to="edge_center_to_north" fromLane="0" toLane="1" via=":center_22_0" dir="r" state="m"/>
    <connection from=":center_22" to="edge_center_to_north" fromLane="0" toLane="1" dir="r" state="M"/>
    <connection from=":center_9" to="edge_center_to_east" fromLane="0" toLane="1" via=":center_23_0" dir="T" state="m"/>
    <connection from=":center_23" to="edge_center_to_east" fromLane="0" toLane="1" dir="T" state="M"/>
    <connection from=":center_10" to="edge_center_to_east" fromLane="0" toLane="0" dir="l" state="M"/>
    <connection from=":center_11" to="edge_center_to_south" fromLane="0" toLane="0" dir="s" state="M"/>
    <connection from=":center_11" to="edge_center_to_south" fromLane="1" toLane="1" dir="s" state="M"/>
    <connection from=":center_13" to="edge_center_to_west" fromLane="0" toLane="1" via=":center_24_0" dir="r" state="m"/>
    <connection from=":center_24" to="edge_center_to_west" fromLane="0" toLane="1" dir="r" state="M"/>
    <connection from=":center_14" to="edge_center_to_north" fromLane="0" toLane="1" via=":center_25_0" dir="T" state="m"/>
    <connection from=":center_25" to="edge_center_to_north" fromLane="0" toLane="1" dir="T" state="M"/>
    <connection from=":center_15" to="edge_center_to_north" fromLane="0" toLane="0" dir="l" state="M"/>
    <connection from=":center_16" to="edge_center_to_east" fromLane="0" toLane="0" dir="s" state="M"/>
    <connection from=":center_16" to="edge_center_to_east" fromLane="1" toLane="1" dir="s" state="M"/>
    <connection from=":center_18" to="edge_center_to_south" fromLane="0" toLane="1" via=":center_26_0" dir="r" state="m"/>
    <connection from=":center_26" to="edge_center_to_south" fromLane="0" toLane="1" dir="r" state="M"/>
    <connection from=":center_19" to="edge_center_to_west" fromLane="0" toLane="1" via=":center_27_0" dir="T" state="m"/>
    <connection from=":center_27" to="edge_center_to_west" fromLane="0" toLane="1" dir="T" state="M"/>
    <connection from=":east_0" to="edge_east_to_center" fromLane="0" toLane="1" dir="T" state="M"/>
    <connection from=":north_0" to="edge_north_to_center" fromLane="0" toLane="1" dir="T" state="M"/>
    <connection from=":south_0" to="edge_south_to_center" fromLane="0" toLane="1" dir="T" state="M"/>
    <connection from=":west_0" to="edge_west_to_center" fromLane="0" toLane="1" dir="T" state="M"/>

</net>
